LTspice 24.0.9 for Windows
Circuit: * C:\Users\hnriv\Desktop\Clocked_Comparator_LTspice\Wide-swing_clocked_comparator.asc
Start Time: Thu Oct  9 18:24:04 2025
Ignoring BSIM parameter HDIF
Ignoring BSIM parameter ACM
Ignoring BSIM parameter HDIF
Ignoring BSIM parameter ACM
Error on line 71 : .model nch nmos ( paramchk = 1 hspver = 98.4 lmin = 0.35e-6 lmax = 1 wmin = 0.7e-6 wmax = 1 tox = 6.67e-9 rsh = 57 vth0 = 0.61808 u0 = 0.043888 dvt0 = 1.69252 lint = -1.041e-8 wint = 1.17363e-7 cgdo = 1.08038e-10 cgso = 1.08038e-10 cgbo = 0 trd = 1.58e-3 trs = 1.58e-3 hdif = 0.45e-6 n = 2 cj=9.29e-04 mj=0.405 pb=0.993 cjsw=2.04e-10 mjsw=0.138 php=1.02 cjgate=2.00e-14 tpb=1.80e-03 tpbsw=8.12e-03 tpbswg=0.00 tcj=9.41e-04 tcjsw=6.52e-04 tcjswg=0.00 level = 49 version = 3.2 tnom = 25 xj = 1.5e-7 nch = 1.7e17 k1 = 0.67 k2 = -0.0382204 k3 = 14.5374 k3b = -4.62006 w0 = 1.92434e-6 nlx = 2.18677e-7 dvt0w = 0 dvt1w = 0 dvt2w = -0.032 dvt1 = 0.30577 dvt2 = -0.05 ua = 1e-10 ub = 1.61079e-18 uc = 5.90418e-11 vsat = 1.28684e5 a0 = 1.183 ags = 0.294113 b0 = 0 b1 = 0 keta = -0.0367789 a1 = 0 a2 = 1 rdsw = 1.05464e3 prwg = 1.46495e-3 prwb = -1e-3 wr = 1 dwg = -7.82539e-9 dwb = -4.23974e-9 voff = -0.130262 nfactor = 1.43662 cdsc = 0 cdscd = 0 cdscb = 1.12e-3 eta0 = 4.64817e-4 etab = -2.01489e-4 dsub = 0.0211046 pclm = 0.714894 pdiblc1 = 9.28501e-3 pdiblc2 = 1.98245e-3 pdiblcb = -1.03044e-6 drout = 0.113641 pscbe1 = 5.31019e8 pscbe2 = 5.00453e-5 pvag = 0.221237 delta = 1e-3 acm = 2 mobmod = 1 prt = 125.0580859 ute = -1.71217 kt1 = -0.34 kt1l = 1e-8 kt2 = -0.0577354 ua1 = 8.19784e-10 ub1 = -1.48202e-18 uc1 = 1.28497e-11 at = 1e3 wl = 0 wln = 1 ww = 0 wwn = 1 wwl = 0 ll = 0 lln = 1 lw = 0 lwn = 1 lwl = 0 capmod = 3 noff = 1 acde = 1 moin = 15 pvth0 = -2.18794e-3 pk2 = 9.69782e-4 pu0 = 5.40727e-4 prdsw = -77.1966 pvsat = 3.36547e3 wketa = 9.46172e-3 lketa = 0.0108578 pketa = -1.73152e-3 noimod = 2 af = 1 ef = 9.35e-1 kf = 0 em = 4.1e5 noia = 1.63e20 noib = 4.072e4 noic = 5.091e-13 )
	* Unrecognized parameter "hspver" -- ignored
Error on line 71 : .model nch nmos ( paramchk = 1 hspver = 98.4 lmin = 0.35e-6 lmax = 1 wmin = 0.7e-6 wmax = 1 tox = 6.67e-9 rsh = 57 vth0 = 0.61808 u0 = 0.043888 dvt0 = 1.69252 lint = -1.041e-8 wint = 1.17363e-7 cgdo = 1.08038e-10 cgso = 1.08038e-10 cgbo = 0 trd = 1.58e-3 trs = 1.58e-3 hdif = 0.45e-6 n = 2 cj=9.29e-04 mj=0.405 pb=0.993 cjsw=2.04e-10 mjsw=0.138 php=1.02 cjgate=2.00e-14 tpb=1.80e-03 tpbsw=8.12e-03 tpbswg=0.00 tcj=9.41e-04 tcjsw=6.52e-04 tcjswg=0.00 level = 49 version = 3.2 tnom = 25 xj = 1.5e-7 nch = 1.7e17 k1 = 0.67 k2 = -0.0382204 k3 = 14.5374 k3b = -4.62006 w0 = 1.92434e-6 nlx = 2.18677e-7 dvt0w = 0 dvt1w = 0 dvt2w = -0.032 dvt1 = 0.30577 dvt2 = -0.05 ua = 1e-10 ub = 1.61079e-18 uc = 5.90418e-11 vsat = 1.28684e5 a0 = 1.183 ags = 0.294113 b0 = 0 b1 = 0 keta = -0.0367789 a1 = 0 a2 = 1 rdsw = 1.05464e3 prwg = 1.46495e-3 prwb = -1e-3 wr = 1 dwg = -7.82539e-9 dwb = -4.23974e-9 voff = -0.130262 nfactor = 1.43662 cdsc = 0 cdscd = 0 cdscb = 1.12e-3 eta0 = 4.64817e-4 etab = -2.01489e-4 dsub = 0.0211046 pclm = 0.714894 pdiblc1 = 9.28501e-3 pdiblc2 = 1.98245e-3 pdiblcb = -1.03044e-6 drout = 0.113641 pscbe1 = 5.31019e8 pscbe2 = 5.00453e-5 pvag = 0.221237 delta = 1e-3 acm = 2 mobmod = 1 prt = 125.0580859 ute = -1.71217 kt1 = -0.34 kt1l = 1e-8 kt2 = -0.0577354 ua1 = 8.19784e-10 ub1 = -1.48202e-18 uc1 = 1.28497e-11 at = 1e3 wl = 0 wln = 1 ww = 0 wwn = 1 wwl = 0 ll = 0 lln = 1 lw = 0 lwn = 1 lwl = 0 capmod = 3 noff = 1 acde = 1 moin = 15 pvth0 = -2.18794e-3 pk2 = 9.69782e-4 pu0 = 5.40727e-4 prdsw = -77.1966 pvsat = 3.36547e3 wketa = 9.46172e-3 lketa = 0.0108578 pketa = -1.73152e-3 noimod = 2 af = 1 ef = 9.35e-1 kf = 0 em = 4.1e5 noia = 1.63e20 noib = 4.072e4 noic = 5.091e-13 )
	* Unrecognized parameter "trd" -- ignored
Error on line 71 : .model nch nmos ( paramchk = 1 hspver = 98.4 lmin = 0.35e-6 lmax = 1 wmin = 0.7e-6 wmax = 1 tox = 6.67e-9 rsh = 57 vth0 = 0.61808 u0 = 0.043888 dvt0 = 1.69252 lint = -1.041e-8 wint = 1.17363e-7 cgdo = 1.08038e-10 cgso = 1.08038e-10 cgbo = 0 trd = 1.58e-3 trs = 1.58e-3 hdif = 0.45e-6 n = 2 cj=9.29e-04 mj=0.405 pb=0.993 cjsw=2.04e-10 mjsw=0.138 php=1.02 cjgate=2.00e-14 tpb=1.80e-03 tpbsw=8.12e-03 tpbswg=0.00 tcj=9.41e-04 tcjsw=6.52e-04 tcjswg=0.00 level = 49 version = 3.2 tnom = 25 xj = 1.5e-7 nch = 1.7e17 k1 = 0.67 k2 = -0.0382204 k3 = 14.5374 k3b = -4.62006 w0 = 1.92434e-6 nlx = 2.18677e-7 dvt0w = 0 dvt1w = 0 dvt2w = -0.032 dvt1 = 0.30577 dvt2 = -0.05 ua = 1e-10 ub = 1.61079e-18 uc = 5.90418e-11 vsat = 1.28684e5 a0 = 1.183 ags = 0.294113 b0 = 0 b1 = 0 keta = -0.0367789 a1 = 0 a2 = 1 rdsw = 1.05464e3 prwg = 1.46495e-3 prwb = -1e-3 wr = 1 dwg = -7.82539e-9 dwb = -4.23974e-9 voff = -0.130262 nfactor = 1.43662 cdsc = 0 cdscd = 0 cdscb = 1.12e-3 eta0 = 4.64817e-4 etab = -2.01489e-4 dsub = 0.0211046 pclm = 0.714894 pdiblc1 = 9.28501e-3 pdiblc2 = 1.98245e-3 pdiblcb = -1.03044e-6 drout = 0.113641 pscbe1 = 5.31019e8 pscbe2 = 5.00453e-5 pvag = 0.221237 delta = 1e-3 acm = 2 mobmod = 1 prt = 125.0580859 ute = -1.71217 kt1 = -0.34 kt1l = 1e-8 kt2 = -0.0577354 ua1 = 8.19784e-10 ub1 = -1.48202e-18 uc1 = 1.28497e-11 at = 1e3 wl = 0 wln = 1 ww = 0 wwn = 1 wwl = 0 ll = 0 lln = 1 lw = 0 lwn = 1 lwl = 0 capmod = 3 noff = 1 acde = 1 moin = 15 pvth0 = -2.18794e-3 pk2 = 9.69782e-4 pu0 = 5.40727e-4 prdsw = -77.1966 pvsat = 3.36547e3 wketa = 9.46172e-3 lketa = 0.0108578 pketa = -1.73152e-3 noimod = 2 af = 1 ef = 9.35e-1 kf = 0 em = 4.1e5 noia = 1.63e20 noib = 4.072e4 noic = 5.091e-13 )
	* Unrecognized parameter "trs" -- ignored
Error on line 71 : .model nch nmos ( paramchk = 1 hspver = 98.4 lmin = 0.35e-6 lmax = 1 wmin = 0.7e-6 wmax = 1 tox = 6.67e-9 rsh = 57 vth0 = 0.61808 u0 = 0.043888 dvt0 = 1.69252 lint = -1.041e-8 wint = 1.17363e-7 cgdo = 1.08038e-10 cgso = 1.08038e-10 cgbo = 0 trd = 1.58e-3 trs = 1.58e-3 hdif = 0.45e-6 n = 2 cj=9.29e-04 mj=0.405 pb=0.993 cjsw=2.04e-10 mjsw=0.138 php=1.02 cjgate=2.00e-14 tpb=1.80e-03 tpbsw=8.12e-03 tpbswg=0.00 tcj=9.41e-04 tcjsw=6.52e-04 tcjswg=0.00 level = 49 version = 3.2 tnom = 25 xj = 1.5e-7 nch = 1.7e17 k1 = 0.67 k2 = -0.0382204 k3 = 14.5374 k3b = -4.62006 w0 = 1.92434e-6 nlx = 2.18677e-7 dvt0w = 0 dvt1w = 0 dvt2w = -0.032 dvt1 = 0.30577 dvt2 = -0.05 ua = 1e-10 ub = 1.61079e-18 uc = 5.90418e-11 vsat = 1.28684e5 a0 = 1.183 ags = 0.294113 b0 = 0 b1 = 0 keta = -0.0367789 a1 = 0 a2 = 1 rdsw = 1.05464e3 prwg = 1.46495e-3 prwb = -1e-3 wr = 1 dwg = -7.82539e-9 dwb = -4.23974e-9 voff = -0.130262 nfactor = 1.43662 cdsc = 0 cdscd = 0 cdscb = 1.12e-3 eta0 = 4.64817e-4 etab = -2.01489e-4 dsub = 0.0211046 pclm = 0.714894 pdiblc1 = 9.28501e-3 pdiblc2 = 1.98245e-3 pdiblcb = -1.03044e-6 drout = 0.113641 pscbe1 = 5.31019e8 pscbe2 = 5.00453e-5 pvag = 0.221237 delta = 1e-3 acm = 2 mobmod = 1 prt = 125.0580859 ute = -1.71217 kt1 = -0.34 kt1l = 1e-8 kt2 = -0.0577354 ua1 = 8.19784e-10 ub1 = -1.48202e-18 uc1 = 1.28497e-11 at = 1e3 wl = 0 wln = 1 ww = 0 wwn = 1 wwl = 0 ll = 0 lln = 1 lw = 0 lwn = 1 lwl = 0 capmod = 3 noff = 1 acde = 1 moin = 15 pvth0 = -2.18794e-3 pk2 = 9.69782e-4 pu0 = 5.40727e-4 prdsw = -77.1966 pvsat = 3.36547e3 wketa = 9.46172e-3 lketa = 0.0108578 pketa = -1.73152e-3 noimod = 2 af = 1 ef = 9.35e-1 kf = 0 em = 4.1e5 noia = 1.63e20 noib = 4.072e4 noic = 5.091e-13 )
	* Unrecognized parameter "cjgate" -- ignored
Error on line 1270 : .model pch pmos ( paramchk = 1 hspver = 98.4 lmin = 0.35e-6 lmax = 1 wmin = 0.7e-6 wmax = 1 tox = 6.67e-9 rsh = 98 vth0 = -0.7835 lint = -8.39e-08 wint = 8.91139e-10 u0 = 0.01487 dvt0 = 0 cgdo = 1.95268e-10 cgso = 1.95268e-10 cgbo = 0 trd = 1.76e-3 trs = 1.76e-3 hdif = 0.45e-6 n = 2 cj=9.91e-04 mj=0.645 pb=1.23 cjsw=1.52e-10 mjsw=0.0818 php=1.18 cjgate=2.00e-14 tpb=1.60e-03 tpbsw=9.03e-03 tpbswg=0.00 tcj=1.00e-03 tcjsw=4.76e-04 tcjswg=0.00 level = 49 version = 3.2 tnom = 25 xj = 1.5e-7 nch = 1.7e17 k1 = 0.37 k2 = -7e-3 k3 = 15 k3b = -5.86154 w0 = 1e-6 nlx = 1e-8 dvt0w = 0 dvt1w = 0 dvt2w = -0.032 dvt1 = 0.430314 dvt2 = -4.99888e-5 ua = 1e-10 ub = 1.44055e-18 uc = -1.75214e-12 vsat = 1.253098e5 a0 = 1.0659628 ags = 0.2996313 b0 = 1.390235e-7 b1 = 1e-7 keta = -0.013675 a1 = 0 a2 = 1 rdsw = 1.09969e3 prwg = 0.0375287 prwb = 7.17622e-4 wr = 1 dwg = -4.71626e-8 dwb = -8.65634e-9 voff = -0.15 nfactor = 2 cdsc = 1e-3 cdscd = 0 cdscb = 0 eta0 = 1 etab = 0 dsub = 0.731232 pclm = 7.12549 pdiblc1 = 10.0001 pdiblc2 = 1e-5 pdiblcb = 0 drout = 0.731232 pscbe1 = 1.4792e10 pscbe2 = 9.65584e-9 pvag = 0 delta = 0.01 acm = 2 mobmod = 1 prt = 3 ute = -2 kt1 = -0.571 kt1l = 2.063246e-10 kt2 = -0.085 ua1 = -8.01599e-10 ub1 = -1.37223e-18 uc1 = 1.217362e-11 at = 895.6448372 wl = 0 wln = 1 ww = 0 wwn = 1 wwl = 0 ll = 0 lln = 1 lw = 0 lwn = 1 lwl = 0 capmod = 3 noff = 1 acde = 1 moin = 15 wua = 1.34815e-9 pvth0 = 0.0167366 prdsw = 280.61 pvsat = -1.620483e4 la0 = -0.1 lags = 0.2368925 lketa = -0.02 lua1 = -6.6473e-10 lub1 = 1.085281e-18 wua1 = -6.10138e-10 wub1 = -4.83712e-21 noimod = 2 af = 1 ef = 1.18 kf = 0 em = 0 noia = 3.31e20 noib = 1e3 noic = 3.4e-12 )
	* Unrecognized parameter "hspver" -- ignored
Error on line 1270 : .model pch pmos ( paramchk = 1 hspver = 98.4 lmin = 0.35e-6 lmax = 1 wmin = 0.7e-6 wmax = 1 tox = 6.67e-9 rsh = 98 vth0 = -0.7835 lint = -8.39e-08 wint = 8.91139e-10 u0 = 0.01487 dvt0 = 0 cgdo = 1.95268e-10 cgso = 1.95268e-10 cgbo = 0 trd = 1.76e-3 trs = 1.76e-3 hdif = 0.45e-6 n = 2 cj=9.91e-04 mj=0.645 pb=1.23 cjsw=1.52e-10 mjsw=0.0818 php=1.18 cjgate=2.00e-14 tpb=1.60e-03 tpbsw=9.03e-03 tpbswg=0.00 tcj=1.00e-03 tcjsw=4.76e-04 tcjswg=0.00 level = 49 version = 3.2 tnom = 25 xj = 1.5e-7 nch = 1.7e17 k1 = 0.37 k2 = -7e-3 k3 = 15 k3b = -5.86154 w0 = 1e-6 nlx = 1e-8 dvt0w = 0 dvt1w = 0 dvt2w = -0.032 dvt1 = 0.430314 dvt2 = -4.99888e-5 ua = 1e-10 ub = 1.44055e-18 uc = -1.75214e-12 vsat = 1.253098e5 a0 = 1.0659628 ags = 0.2996313 b0 = 1.390235e-7 b1 = 1e-7 keta = -0.013675 a1 = 0 a2 = 1 rdsw = 1.09969e3 prwg = 0.0375287 prwb = 7.17622e-4 wr = 1 dwg = -4.71626e-8 dwb = -8.65634e-9 voff = -0.15 nfactor = 2 cdsc = 1e-3 cdscd = 0 cdscb = 0 eta0 = 1 etab = 0 dsub = 0.731232 pclm = 7.12549 pdiblc1 = 10.0001 pdiblc2 = 1e-5 pdiblcb = 0 drout = 0.731232 pscbe1 = 1.4792e10 pscbe2 = 9.65584e-9 pvag = 0 delta = 0.01 acm = 2 mobmod = 1 prt = 3 ute = -2 kt1 = -0.571 kt1l = 2.063246e-10 kt2 = -0.085 ua1 = -8.01599e-10 ub1 = -1.37223e-18 uc1 = 1.217362e-11 at = 895.6448372 wl = 0 wln = 1 ww = 0 wwn = 1 wwl = 0 ll = 0 lln = 1 lw = 0 lwn = 1 lwl = 0 capmod = 3 noff = 1 acde = 1 moin = 15 wua = 1.34815e-9 pvth0 = 0.0167366 prdsw = 280.61 pvsat = -1.620483e4 la0 = -0.1 lags = 0.2368925 lketa = -0.02 lua1 = -6.6473e-10 lub1 = 1.085281e-18 wua1 = -6.10138e-10 wub1 = -4.83712e-21 noimod = 2 af = 1 ef = 1.18 kf = 0 em = 0 noia = 3.31e20 noib = 1e3 noic = 3.4e-12 )
	* Unrecognized parameter "trd" -- ignored
Error on line 1270 : .model pch pmos ( paramchk = 1 hspver = 98.4 lmin = 0.35e-6 lmax = 1 wmin = 0.7e-6 wmax = 1 tox = 6.67e-9 rsh = 98 vth0 = -0.7835 lint = -8.39e-08 wint = 8.91139e-10 u0 = 0.01487 dvt0 = 0 cgdo = 1.95268e-10 cgso = 1.95268e-10 cgbo = 0 trd = 1.76e-3 trs = 1.76e-3 hdif = 0.45e-6 n = 2 cj=9.91e-04 mj=0.645 pb=1.23 cjsw=1.52e-10 mjsw=0.0818 php=1.18 cjgate=2.00e-14 tpb=1.60e-03 tpbsw=9.03e-03 tpbswg=0.00 tcj=1.00e-03 tcjsw=4.76e-04 tcjswg=0.00 level = 49 version = 3.2 tnom = 25 xj = 1.5e-7 nch = 1.7e17 k1 = 0.37 k2 = -7e-3 k3 = 15 k3b = -5.86154 w0 = 1e-6 nlx = 1e-8 dvt0w = 0 dvt1w = 0 dvt2w = -0.032 dvt1 = 0.430314 dvt2 = -4.99888e-5 ua = 1e-10 ub = 1.44055e-18 uc = -1.75214e-12 vsat = 1.253098e5 a0 = 1.0659628 ags = 0.2996313 b0 = 1.390235e-7 b1 = 1e-7 keta = -0.013675 a1 = 0 a2 = 1 rdsw = 1.09969e3 prwg = 0.0375287 prwb = 7.17622e-4 wr = 1 dwg = -4.71626e-8 dwb = -8.65634e-9 voff = -0.15 nfactor = 2 cdsc = 1e-3 cdscd = 0 cdscb = 0 eta0 = 1 etab = 0 dsub = 0.731232 pclm = 7.12549 pdiblc1 = 10.0001 pdiblc2 = 1e-5 pdiblcb = 0 drout = 0.731232 pscbe1 = 1.4792e10 pscbe2 = 9.65584e-9 pvag = 0 delta = 0.01 acm = 2 mobmod = 1 prt = 3 ute = -2 kt1 = -0.571 kt1l = 2.063246e-10 kt2 = -0.085 ua1 = -8.01599e-10 ub1 = -1.37223e-18 uc1 = 1.217362e-11 at = 895.6448372 wl = 0 wln = 1 ww = 0 wwn = 1 wwl = 0 ll = 0 lln = 1 lw = 0 lwn = 1 lwl = 0 capmod = 3 noff = 1 acde = 1 moin = 15 wua = 1.34815e-9 pvth0 = 0.0167366 prdsw = 280.61 pvsat = -1.620483e4 la0 = -0.1 lags = 0.2368925 lketa = -0.02 lua1 = -6.6473e-10 lub1 = 1.085281e-18 wua1 = -6.10138e-10 wub1 = -4.83712e-21 noimod = 2 af = 1 ef = 1.18 kf = 0 em = 0 noia = 3.31e20 noib = 1e3 noic = 3.4e-12 )
	* Unrecognized parameter "trs" -- ignored
Error on line 1270 : .model pch pmos ( paramchk = 1 hspver = 98.4 lmin = 0.35e-6 lmax = 1 wmin = 0.7e-6 wmax = 1 tox = 6.67e-9 rsh = 98 vth0 = -0.7835 lint = -8.39e-08 wint = 8.91139e-10 u0 = 0.01487 dvt0 = 0 cgdo = 1.95268e-10 cgso = 1.95268e-10 cgbo = 0 trd = 1.76e-3 trs = 1.76e-3 hdif = 0.45e-6 n = 2 cj=9.91e-04 mj=0.645 pb=1.23 cjsw=1.52e-10 mjsw=0.0818 php=1.18 cjgate=2.00e-14 tpb=1.60e-03 tpbsw=9.03e-03 tpbswg=0.00 tcj=1.00e-03 tcjsw=4.76e-04 tcjswg=0.00 level = 49 version = 3.2 tnom = 25 xj = 1.5e-7 nch = 1.7e17 k1 = 0.37 k2 = -7e-3 k3 = 15 k3b = -5.86154 w0 = 1e-6 nlx = 1e-8 dvt0w = 0 dvt1w = 0 dvt2w = -0.032 dvt1 = 0.430314 dvt2 = -4.99888e-5 ua = 1e-10 ub = 1.44055e-18 uc = -1.75214e-12 vsat = 1.253098e5 a0 = 1.0659628 ags = 0.2996313 b0 = 1.390235e-7 b1 = 1e-7 keta = -0.013675 a1 = 0 a2 = 1 rdsw = 1.09969e3 prwg = 0.0375287 prwb = 7.17622e-4 wr = 1 dwg = -4.71626e-8 dwb = -8.65634e-9 voff = -0.15 nfactor = 2 cdsc = 1e-3 cdscd = 0 cdscb = 0 eta0 = 1 etab = 0 dsub = 0.731232 pclm = 7.12549 pdiblc1 = 10.0001 pdiblc2 = 1e-5 pdiblcb = 0 drout = 0.731232 pscbe1 = 1.4792e10 pscbe2 = 9.65584e-9 pvag = 0 delta = 0.01 acm = 2 mobmod = 1 prt = 3 ute = -2 kt1 = -0.571 kt1l = 2.063246e-10 kt2 = -0.085 ua1 = -8.01599e-10 ub1 = -1.37223e-18 uc1 = 1.217362e-11 at = 895.6448372 wl = 0 wln = 1 ww = 0 wwn = 1 wwl = 0 ll = 0 lln = 1 lw = 0 lwn = 1 lwl = 0 capmod = 3 noff = 1 acde = 1 moin = 15 wua = 1.34815e-9 pvth0 = 0.0167366 prdsw = 280.61 pvsat = -1.620483e4 la0 = -0.1 lags = 0.2368925 lketa = -0.02 lua1 = -6.6473e-10 lub1 = 1.085281e-18 wua1 = -6.10138e-10 wub1 = -4.83712e-21 noimod = 2 af = 1 ef = 1.18 kf = 0 em = 0 noia = 3.31e20 noib = 1e3 noic = 3.4e-12 )
	* Unrecognized parameter "cjgate" -- ignored
solver = Normal
Maximum thread count: 8
tnom = 27
temp = 27
method = modified trap
WARNING: Node NC_02 is floating.

Warning: Pd = 0 is less than W.
Warning: Ps = 0 is less than W.
Warning: Pd = 0 is less than W.
Warning: Ps = 0 is less than W.
Warning: Pd = 0 is less than W.
Warning: Ps = 0 is less than W.
Warning: Pd = 0 is less than W.
Warning: Ps = 0 is less than W.
Direct Newton iteration for .op point succeeded.
Total elapsed time: 3.222 seconds.

